12

  C -0.12286997 -1.56543456  0.05057959
  C  1.15292033 -0.86116188 -0.05196363
  C  1.30827041  0.68453349 -0.02902463
  C  0.16471217  1.34593241  0.04223147
  C -1.10991463  1.03430083  0.00554686
  C -1.20396048 -0.31014025 -0.15527494
  H -0.29233193 -2.39636052 -0.13782813
  H  1.97554874 -1.60438042 -0.16308878
  H  2.14325826  1.05256741  0.01654230
  H  0.27809487  2.54781261  0.07107030
  H -1.99335629  1.66760518 -0.00648319
  H -2.22446203 -0.95959095 -0.06407098