60

C         -3.14301        2.55038       -0.01079
C          0.35581        4.47419        0.01318
C          3.50017        2.42689       -0.01611
C          3.37954       -1.37076        0.02362
C         -0.73058       -3.48245        0.01418
C         -4.58916       -2.58337       -0.03092
C         -7.69872       -0.39951       -0.08302
C         -8.99785        3.23873        0.08278
C         -8.00847        6.82531        0.02933
C         -4.54994        8.29910        0.01592
C         -0.37532        8.62068       -0.01020
C          3.57040        8.09261        0.01305
H         -2.07899        2.24019       -0.06001
H         -3.28308        3.25778        0.83224
H         -3.78224        1.65691        0.14529
H         -3.42760        3.04726       -0.96096
H          1.37490        4.90616       -0.06320
H          0.33968        3.70338        0.81097
H          0.07780        4.00868       -0.95463
H         -0.36900        5.27702        0.25931
H          4.41173        1.79557        0.01166
H          2.60984        1.78531       -0.17844
H          3.58254        3.16047       -0.84440
H          3.39465        2.96787        0.94677
H          4.47654       -1.20538        0.01552
H          2.93536       -0.85831        0.90151
H          3.16922       -2.45850        0.08435
H          2.93727       -0.95975       -0.90699
H          0.34420       -3.74163       -0.08140
H         -0.83310       -2.53537        0.58257
H         -1.26153       -4.29510        0.55121
H         -1.17267       -3.35728       -0.99550
H         -3.57603       -2.19185        0.19366
H         -4.96960       -2.11171       -0.96012
H         -5.27166       -2.34605        0.81084
H         -4.53933       -3.68313       -0.16795
H         -6.69893        0.07384        0.00222
H         -8.35610        0.23450       -0.71238
H         -8.14450       -0.50653        0.92716
H         -7.59629       -1.40071       -0.54963
H         -7.95163        3.58009        0.22275
H         -9.13465        2.88474       -0.95960
H         -9.69220        4.08093        0.28093
H         -9.21336        2.40893        0.78678
H         -7.03595        6.33077       -0.17096
H         -8.39887        6.48759        1.01129
H         -8.73087        6.55519       -0.76811
H         -7.86859        7.92568        0.04520
H         -3.58135        8.83479        0.08322
H         -4.36464        7.20901       -0.07425
H         -5.10827        8.65416       -0.87460
H         -5.14708        8.49835        0.92943
H          0.68059        8.95624       -0.04318
H         -0.56714        8.09436        0.94751
H         -0.57163        7.93083       -0.85672
H         -1.04344        9.50269       -0.08843
H          4.65085        7.84610        0.02229
H          3.38220        8.95867        0.68096
H          2.98650        7.21837        0.36890
H          3.25732        8.34924       -1.02024
