 22
 0.000000
  C 3.229500 -1.189209 0.139884
  C 2.146016 -0.205277 0.472351
  N 1.118946 -0.112570 -0.476082
  C -0.047244 0.763675 -0.244060
  C -1.303372 -0.141988 -0.210245
  N -2.291823 0.245144 0.683372
  C -3.533353 -0.542642 0.823359
  O 2.135601 0.498914 1.468642
  C -0.213883 1.775304 -1.377215
  O -1.430939 -1.114645 -0.937948
  H 3.761964 -0.925905 -0.783925
  H 2.849246 -2.213260 0.027908
  H 3.977199 -1.208577 0.950328
  H 1.044379 -0.752095 -1.266196
  H 0.102202 1.303404 0.735056
  H -2.174667 1.020035 1.323555
  H -4.416282 0.081572 0.609554
  H -3.620829 -0.960321 1.839472
  H -3.535367 -1.390383 0.106912
  H -1.058895 2.448598 -1.192129
  H -0.391967 1.284865 -2.344309
  H 0.688253 2.392712 -1.487114
