8

 C                 -0.85014289    0.72105147    1.25827269
 H                 -0.49348846   -0.28775853    1.25827269
 H                 -0.49347005    1.22544966    2.13192420
 H                 -1.92014289    0.72106466    1.25827269
 C                 -0.33680067    1.44700775    0.00086772
 H                 -0.69331393    0.94249583   -0.87278325
 H                 -0.69361466    2.45576132    0.00077000
 H                  0.73319931    1.44716406    0.00096530
