18

O -1.394241 1.687920 -0.211618
H -2.158441 1.687920 -0.810718
H -0.630041 1.687920 -0.810718
O 0.845909 2.485008 -1.386990
H 0.081709 2.485008 -1.986090
H 1.610109 2.485008 -1.986090
C -2.769124 -1.548285 2.024369
C -1.465624 -2.056185 2.024369
C -0.374124 -1.181285 2.024369
C -0.585924 0.201515 2.024369
C -1.889424 0.709315 2.024369
C -2.981024 -0.165585 2.024369
H -3.620824 -2.230985 2.024369
H -1.300224 -3.135186 2.024369
H 0.643076 -1.577485 2.024369
H 0.265776 0.884215 2.024369
H -2.054824 1.788415 2.024369
H -3.998124 0.230815 2.024369
