330
bare_solvated.pdb
C         -2.89600        0.28900       -0.51600
C         -2.27600        0.52600        0.70700
C         -1.33300       -0.36700        1.19300
C         -0.99200       -1.50300        0.46100
C         -1.61100       -1.73200       -0.76200
C         -2.56400       -0.84300       -1.24900
H         -2.52500        1.41100        1.27800
H         -0.83300       -0.17000        2.13400
H         -1.32700       -2.59600       -1.34800
H         -3.03500       -1.03000       -2.20600
C          0.06200       -2.45600        0.96800
H         -0.22400       -2.84600        1.94800
H          0.15100       -3.30100        0.28100
N          1.35700       -1.79000        1.16600
H          2.01300       -2.28600        1.75700
S          2.17300       -1.19700       -0.15500
O          3.55800       -1.19400        0.24000
O          1.74000       -1.87700       -1.34800
C          1.61100        0.48400       -0.25700
C          1.98100        1.37700        0.74500
C          0.81900        0.88200       -1.32300
C          1.53800        2.68900        0.67600
H          2.60700        1.04300        1.56000
C          0.38300        2.20000       -1.38500
H          0.54300        0.16200       -2.08000
C          0.73900        3.10000       -0.38800
H          1.81900        3.39300        1.44800
H         -0.24100        2.51900       -2.20900
H         -3.63000        0.98700       -0.89700
H          0.39400        4.12500       -0.43900
C         -1.43200        8.55400       -1.25000
H         -0.37000        8.79000       -1.17400
H         -1.93700        8.86300       -0.33600
H         -1.86100        9.08500       -2.09800
C         -1.59700        7.14000       -1.43500
N         -1.72800        6.01400       -1.58300
C          5.48200       -0.26300        1.09200
H          5.35800       -0.02200        0.03700
H          6.43200        0.13600        1.44600
H          4.66700        0.18000        1.66300
C          5.46700       -1.68900        1.26300
N          5.45500       -2.82400        1.39900
C         -0.21400       -7.04000        4.44100
H          0.38300       -6.99800        3.53100
H         -0.33600       -8.07800        4.74700
H          0.29000       -6.48600        5.23200
C         -1.50400       -6.45700        4.19500
N         -2.53000       -5.99400        4.00000
C          3.66500        6.17800        4.82000
H          4.29300        5.33800        4.52500
H          4.27200        7.08000        4.88200
H          2.87800        6.32000        4.08100
C          3.07500        5.90800        6.10200
N          2.60600        5.69300        7.12200
C          4.41100       -2.70400        5.85300
H          3.41900       -3.14200        5.74300
H          4.71900       -2.26400        4.90600
H          4.38200       -1.93200        6.61900
C          5.34600       -3.72500        6.23400
N          6.09000       -4.53800        6.53800
C          5.07300        0.36200        7.49800
H          4.06500       -0.03600        7.61500
H          5.09200        1.06000        6.66200
H          5.36600        0.88000        8.41000
C          5.98800       -0.71600        7.24400
N          6.71500       -1.57300        7.04100
C          8.03400       -2.68100       -3.97200
H          8.58900       -3.57900       -3.70400
H          8.14600       -1.93700       -3.18500
H          8.42400       -2.28100       -4.90700
C          6.64400       -3.00500       -4.13100
N          5.53800       -3.26300       -4.25800
C          9.07300        0.89700        0.74600
H          8.25900        0.34800        0.27300
H          9.96800        0.81900        0.13100
H          8.79200        1.94500        0.84600
C          9.33400        0.34400        2.04500
N          9.54200       -0.09600        3.08000
C         -0.57600       -7.79100        1.10300
H         -1.49200       -8.05700        0.57500
H         -0.39600       -8.51100        1.90000
H          0.26000       -7.80500        0.40700
C         -0.71200       -6.47700        1.66600
N         -0.81900       -5.43000        2.11300
C         -6.66700        3.17800       -3.43100
H         -5.92100        2.38400       -3.43000
H         -6.59200        3.74600       -2.50400
H         -6.49000        3.84100       -4.27700
C         -7.97900        2.60500       -3.53600
N         -9.02400        2.14800       -3.62100
C          2.59400       -4.15700        7.89600
H          2.91300       -3.12500        8.04000
H          3.47000       -4.80300        7.85000
H          1.96300       -4.46100        8.72900
C          1.85500       -4.26300        6.66900
N          1.26600       -4.34800        5.69400
C          8.77100        2.72000       -1.74700
H          8.24800        1.89200       -1.26900
H          9.44400        3.18500       -1.02800
H          9.34600        2.34600       -2.59200
C          7.81500        3.68900       -2.20700
N          7.05500        4.45900       -2.57300
C         -5.29500        6.56500       -3.47800
H         -5.40800        7.64800       -3.45400
H         -4.76200        6.27600       -4.38300
H         -4.73000        6.24000       -2.60600
C         -6.59100        5.94600       -3.46700
N         -7.62300        5.45400       -3.45800
C          4.17700       -4.34700       -0.26900
H          4.05600       -4.59000       -1.32400
H          4.11300       -3.26800       -0.13600
H          3.38900       -4.83000        0.30700
C          5.45700       -4.81100        0.18700
N          6.47600       -5.18000        0.54900
C         -6.08800       -4.78000        4.03100
H         -5.94500       -4.04100        3.24300
H         -5.84400       -4.33400        4.99400
H         -7.12700       -5.10600        4.03600
C         -5.23200       -5.90700        3.79200
N         -4.55000       -6.80500        3.60200
C         -6.01200        4.93400       -0.09600
H         -6.70900        4.30600        0.45900
H         -5.35500        5.45100        0.60200
H         -5.41500        4.31100       -0.76100
C         -6.74500        5.89700       -0.86900
N         -7.32800        6.66400       -1.48400
C          6.04400        1.43200       -1.54300
H          5.01000        1.15000       -1.73500
H          6.38500        2.11300       -2.32100
H          6.11100        1.92500       -0.57400
C          6.86900        0.25600       -1.53900
N          7.52500       -0.68000       -1.53700
C         -1.38200       -5.72300       -0.70500
H         -1.81000       -4.92800       -1.31400
H         -0.49400       -5.35200       -0.19700
H         -2.11400       -6.04600        0.03500
C         -1.02700       -6.83300       -1.54400
N         -0.74400       -7.71600       -2.21200
C          1.55000       -1.07400        5.59200
H          2.02400       -0.16600        5.22000
H          2.00300       -1.35700        6.54100
H          0.48600       -0.89400        5.73700
C          1.73200       -2.13400        4.63900
N          1.87600       -2.97700        3.88100
C          3.74600        3.01700        8.07700
H          3.23300        2.29900        8.71700
H          3.38300        4.02000        8.29600
H          4.81700        2.96900        8.26500
C          3.48600        2.70300        6.70000
N          3.27900        2.45200        5.60400
C         -4.64600        5.93300        4.70000
H         -4.14000        6.20400        5.62600
H         -4.05200        5.19300        4.16600
H         -5.62400        5.51400        4.93200
C         -4.80700        7.10200        3.88100
N         -4.93400        8.03200        3.22900
C          7.98300       -3.72700       -0.38400
H          8.50900       -4.37700        0.31500
H          7.51700       -4.33300       -1.16000
H          7.21400       -3.16900        0.15000
C          8.91300       -2.81200       -0.98200
N          9.65300       -2.08300       -1.45900
C         -3.46400       -1.34500        5.85400
H         -4.02000       -2.25800        5.64100
H         -2.39700       -1.54600        5.77500
H         -3.74200       -0.57600        5.13400
C         -3.77200       -0.89400        7.18200
N         -4.01600       -0.53500        8.23900
C          6.38600        3.84700        5.75000
H          5.62300        4.55500        6.07200
H          7.22200        4.39000        5.31200
H          6.73500        3.27500        6.60900
C          5.82900        2.95300        4.77400
N          5.38600        2.24200        3.99600
C         -1.92700        1.61200        8.12600
H         -0.93900        2.06100        8.02300
H         -1.83100        0.62700        8.58100
H         -2.54700        2.24500        8.76000
C         -2.53500        1.48700        6.83100
N         -3.01900        1.38700        5.80100
C         -4.63500       -4.67600        0.74600
H         -4.13400       -5.64100        0.80900
H         -5.71100       -4.83200        0.67300
H         -4.41300       -4.09300        1.63800
C         -4.17300       -3.97000       -0.41600
N         -3.80500       -3.40900       -1.34100
C          6.96500        0.81000       -4.68800
H          5.90200        0.99100       -4.84600
H          7.11100        0.33700       -3.71900
H          7.34100        0.15400       -5.47200
C          7.67400        2.05800       -4.72500
N          8.23900        3.05100       -4.75400
C         -1.79200        7.38700       -4.68300
H         -0.80200        7.78700       -4.46400
H         -1.98300        7.45900       -5.75200
H         -1.83700        6.34400       -4.37500
C         -2.78200        8.14200       -3.96700
N         -3.57000        8.74300       -3.39800
C          5.31700        4.98600        0.08700
H          6.18200        4.88900       -0.56900
H          4.40500        4.87200       -0.49700
H          5.35500        4.21400        0.85400
C          5.33000        6.28100        0.70800
N          5.34000        7.31100        1.20200
C         -1.18400        3.96300        5.72500
H         -0.30400        4.46100        6.12900
H         -1.69700        3.43000        6.52400
H         -1.85500        4.70600        5.29600
C         -0.78400        3.03300        4.70700
N         -0.46600        2.29300        3.89600
C          1.63400        4.71700       -7.09700
H          1.66500        5.47700       -6.31700
H          0.59800        4.46100       -7.31300
H          2.10700        5.10400       -7.99900
C          2.33500        3.54500       -6.65300
N          2.89300        2.61200       -6.30000
C         -7.63400        0.59400       -0.95700
H         -8.52200        1.22500       -1.00100
H         -7.74900       -0.13700       -0.15800
H         -7.51000        0.07700       -1.90700
C         -6.48000        1.40900       -0.69900
N         -5.56100        2.05700       -0.49400
C          0.04100       -4.98000       -3.91500
H         -0.29000       -6.00000       -4.10800
H         -0.16700       -4.36100       -4.78700
H         -0.49500       -4.58300       -3.05300
C          1.45100       -4.97500       -3.64700
N          2.57400       -4.97100       -3.43400
C          2.57100       -7.35500        1.67800
H          2.11600       -6.55400        2.25900
H          3.55400       -7.58500        2.08700
H          1.94100       -8.24200        1.72700
C          2.70600       -6.93800        0.31000
N          2.81400       -6.60600       -0.77800
C         -1.96900        4.20500        0.69800
H         -1.33500        3.50000        1.23600
H         -1.84400        4.05900       -0.37400
H         -3.01000        4.03500        0.96900
C         -1.59500        5.54700        1.04700
N         -1.29800        6.61500        1.32400
C          5.02900       -0.65100       -7.07400
H          4.44700        0.08600       -7.62700
H          4.83300       -1.64400       -7.47700
H          6.08900       -0.42300       -7.17300
C          4.65700       -0.61300       -5.68800
N          4.36200       -0.58300       -4.58400
C         -1.00600        7.07700        5.21200
H         -0.67600        6.33100        4.48900
H         -1.26600        6.58300        6.14800
H         -0.20100        7.78900        5.39000
C         -2.15400        7.76900        4.69800
N         -3.06800        8.32000        4.28900
C          4.66200       -5.28500        2.79900
H          4.61400       -5.79300        3.76200
H          5.34600       -4.44100        2.86900
H          5.02100       -5.98000        2.04100
C          3.35400       -4.81500        2.43800
N          2.31300       -4.44000        2.15000
C          7.42600       -3.59700        3.99900
H          8.23000       -3.34400        4.69000
H          6.59900       -2.90100        4.13600
H          7.79300       -3.52600        2.97600
C          6.97500       -4.93500        4.25600
N          6.61500       -6.00100        4.46000
C          1.33700       -4.52800       -6.96600
H          1.88700       -5.38000       -7.36400
H          1.68700       -4.31000       -5.95800
H          1.50200       -3.66000       -7.60300
C         -0.06500       -4.83700       -6.93000
N         -1.18100       -5.08300       -6.90100
C          1.43000        7.12400       -4.45800
H          1.18900        7.69900       -5.35200
H          2.48500        6.85600       -4.47400
H          1.22200        7.72500       -3.57400
C          0.63200        5.93000       -4.42600
N         -0.00300        4.98100       -4.40000
C         -1.85600       -3.35900        8.00200
H         -2.65200       -2.72600        7.61200
H         -2.29100       -4.24900        8.45400
H         -1.19500       -3.65300        7.18800
C         -1.10800       -2.63500        8.99100
N         -0.51200       -2.05900        9.77800
C         -3.93300        7.63900        0.75700
H         -3.43900        6.70900        1.03600
H         -3.45900        8.47100        1.27500
H         -3.84700        7.78500       -0.31900
C         -5.32100        7.57300        1.12200
N         -6.42500        7.52100        1.41400
C          4.33600        7.51800       -1.95900
H          4.04200        6.48600       -2.14700
H          4.66500        7.61800       -0.92500
H          5.15200        7.79000       -2.62700
C          3.21600        8.38600       -2.19200
N          2.32500        9.07800       -2.37700
C          4.06700        4.21400       -3.93900
H          5.09900        4.45000       -3.68200
H          3.43100        5.06600       -3.70200
H          3.99900        3.99600       -5.00300
C          3.63500        3.06900       -3.18600
N          3.29200        2.15900       -2.58700
C          1.27100        1.05500        7.50900
H          2.23600        1.01600        7.00400
H          1.15000        0.16700        8.12700
H          1.22700        1.94300        8.13800
C          0.22000        1.10600        6.53200
N         -0.61600        1.14600        5.75400
C          6.81800        0.14600        4.04000
H          6.30800        0.51600        4.92900
H          7.76400       -0.31000        4.32900
H          6.19300       -0.59600        3.54700
C          7.06700        1.23800        3.14100
N          7.26600        2.10600        2.42500
C         -7.21500       -3.21800       -0.48900
H         -7.59600       -2.49400       -1.20900
H         -6.26600       -2.86500       -0.08900
H         -7.93200       -3.33100        0.32400
C         -7.02200       -4.48400       -1.13700
N         -6.86800       -5.49200       -1.65400
C         -4.47500       -1.99500       -6.78700
H         -5.29900       -2.66100       -6.53300
H         -3.54000       -2.42400       -6.43000
H         -4.42800       -1.87300       -7.86800
C         -4.68300       -0.71600       -6.16800
N         -4.84900        0.30200       -5.67500
C          1.86100        3.63400        4.24400
H          1.49600        2.65100        4.54100
H          1.07900        4.16100        3.69900
H          2.13000        4.20300        5.13300
C          3.01500        3.48300        3.40300
N          3.93300        3.36400        2.73300
