10
105 ethene_ethine c2v -1.53
  C -2.12821330 -0.66757800  0.00000000
  C -2.12821330  0.66757800  0.00000000
  H -2.12973930 -1.23225300  0.92362100
  H -2.12973930 -1.23225300 -0.92362100
  H -2.12973930  1.23225300 -0.92362100
  H -2.12973930  1.23225300  0.92362100
  C  2.89694870  0.00000000  0.00000000
  C  1.68968570  0.00000000  0.00000000
  H  0.62379770  0.00000000  0.00000000
  H  3.96037470  0.00000000  0.00000000