16
109 benzene_ammonia cs -2.35
  C  0.51589747  1.20710790 -0.73928047
  C  0.39656665 -0.00000000 -1.42614405
  C  0.51589747 -1.20710790 -0.73928047
  C  0.75465442 -1.20707350  0.63422818
  C  0.87376904  0.00000000  1.32104506
  C  0.75465442  1.20707350  0.63422818
  H  0.42065226  2.14328940 -1.27194928
  H  0.20526262 -0.00000000 -2.49022096
  H  0.42065226 -2.14328940 -1.27194928
  H  0.84750143 -2.14369500  1.16680208
  H  1.05964027  0.00000000  2.38636075
  H  0.84750143  2.14369500  1.16680208
  N -2.94910704  0.00000000  0.18038255
  H -3.14593348  0.80607290  0.75953842
  H -3.14593348 -0.80607290  0.75953842
  H -1.94492341  0.00000000  0.04440943