24
123 uracil_dimer_hb c2h -20.65
  O -1.01217417  1.46632824  0.00000000
  C -1.91426989  0.62814004  0.00000000
  N -1.68826641 -0.72051491  0.00000000
  C -2.70527097 -1.63673798  0.00000000
  C -4.00617206 -1.27691690  0.00000000
  C -4.36215533  0.12858602  0.00000000
  N -3.23964655  0.97771224  0.00000000
  O -5.48640858  0.59720468  0.00000000
  H -4.79385753 -2.01036632  0.00000000
  H -0.70617860 -1.02325384  0.00000000
  H -3.43239154  1.97001540  0.00000000
  H -2.38833284 -2.66906993  0.00000000
  O  1.01217417 -1.46632824  0.00000000
  C  1.91426989 -0.62814004  0.00000000
  N  1.68826641  0.72051491  0.00000000
  C  2.70527097  1.63673798  0.00000000
  C  4.00617206  1.27691690  0.00000000
  C  4.36215533 -0.12858602  0.00000000
  N  3.23964655 -0.97771224  0.00000000
  O  5.48640858 -0.59720468  0.00000000
  H  4.79385753  2.01036632  0.00000000
  H  0.70617860  1.02325384  0.00000000
  H  3.43239154 -1.97001540  0.00000000
  H  2.38833284  2.66906993  0.00000000