7

 C                  1.18853449   -0.14492254    0.00000853
 H                  1.72048812    0.20761105    0.87988458
 H                  1.17821329   -1.23007755    0.00010203
 H                  1.72046071    0.20729169   -0.87999820
 C                 -0.24523090    0.40784932    0.00000315
 H                 -0.30719956    1.51047266   -0.00008295
 O                 -1.24647301   -0.28410732    0.00000306
