7

 H                  0.95715690    0.89587388    0.00079568
 H                 -0.95715690   -0.89587388    0.00079568
 O                 -0.00000000    0.73652985   -0.00009946
 O                  0.00000000   -0.73652985   -0.00009946
 O                 -1.60179131   -5.51649661   -1.99843525
 H                 -0.64179131   -5.51649661   -1.99843525
 H                 -1.92224590   -4.61156078   -1.99843525
