14
oniom_13_coupling_example.pdb
C         -0.50600       -0.46300        0.00000
H         -0.14900       -1.47200        0.00000
H         -0.14900        0.04100       -0.87400
H         -1.57600       -0.46300        0.00000
C          0.00800        0.26200        1.25700
H         -0.34700        1.27200        1.25600
H         -0.35100       -0.24100        2.13100
C          1.54800        0.26000        1.25900
H          1.90600        0.76300        0.38500
H          1.90300       -0.74900        1.26000
C          2.06100        0.98600        2.51600
H          1.70300        0.48400        3.39000
H          3.13100        0.98500        2.51700
H          1.70600        1.99600        2.51500
