    7
 
 P     0.000000     0.000000     0.000000
 O     0.000000     0.000000     1.460000
 O     1.376512     0.000000    -0.486637
 O    -0.933388    -1.616675    -0.659960
 O    -1.249961     0.167891    -0.883748
 H    -1.242125    -2.128293     0.078571
 H    -1.818177    -0.958092    -1.032719
