19
acanil01
O       3.568423    0.000000    0.000000 
N       1.455901   -0.486826    0.000000 
C      -1.989489   -1.915869    0.000000 
C      -0.601464   -1.792434    0.000000 
C       0.002262   -0.530862    0.000000 
C      -0.814855    0.610602    0.000000 
C      -2.202932    0.485954    0.000000 
C      -2.787764   -0.776431    0.000000 
C       2.420402    0.426049    0.000000 
C       2.186598    1.926496    0.000000 
H      -2.446422   -2.895533    0.000000 
H      -0.001999   -2.692271    0.000000 
H      -0.404850    1.605135    0.000000 
H      -2.826027    1.369290    0.000000 
H      -3.864405   -0.872098    0.000000 
H       1.894891   -1.410147    0.000000 
H       3.149727    2.466909    0.000000 
H       1.631002    2.241019    0.900005 
H       1.631002    2.241019   -0.900005
