8
ethane
C       0.000000    0.000000    0.769841 
C       0.000000    0.000000   -0.769841 
H       0.889465    0.513533    1.134849 
H       0.889465   -0.513533   -1.134849 
H      -0.889465    0.513533    1.134849 
H      -0.889465   -0.513533   -1.134849 
H       0.000000   -1.027065    1.134849 
H       0.000000    1.027065   -1.134849 
