18
1,3,5-trisilacyclohexane 
Si      1.521716    0.878563    0.264641
Si     -1.521716    0.878563    0.264641
Si      0.000000   -1.757127    0.264641
C       0.000000    1.754842   -0.347383
C       1.519738   -0.877421   -0.347383
C      -1.519738   -0.877421   -0.347383
H       0.000000    2.780311    0.024082
H       2.407820   -1.390156    0.024082
H      -2.407820   -1.390156    0.024082 
H       0.000000    1.765443   -1.437648 
H       1.528918   -0.882721   -1.437648 
H      -1.528918   -0.882721   -1.437648 
H       2.725015    1.573288   -0.247856 
H      -2.725015    1.573288   -0.247856 
H       1.540501    0.889408    1.744165 
H      -1.540501    0.889408    1.744165 
H       0.000000   -1.778817    1.744165 
H       0.000000   -3.146577   -0.247856 
