14
benzaldehyde
O       3.236956    0.000000    0.000000 
C      -0.226551   -1.195695    0.000000 
C      -1.549798   -0.759257    0.000000 
C      -1.833925    0.603887    0.000000 
C      -0.797002    1.533147    0.000000 
C       0.527135    1.099905    0.000000 
C       0.821760   -0.270063    0.000000 
C       2.280767   -0.777731    0.000000 
H       2.483309   -1.865001    0.000000 
H      -0.025606   -2.258176    0.000000 
H      -2.355727   -1.478663    0.000000 
H      -2.860291    0.940922    0.000000 
H      -1.019479    2.590301    0.000000 
H       1.318453    1.836424    0.000000 
