24
111 benzene_dimer c2v -2.74
  C  1.05903530  0.00000000  0.00000000
  C  1.75767420 -1.20600840  0.00000000
  C  3.15159050 -1.20717670  0.00000000
  C  3.84857510  0.00000000  0.00000000
  C  3.15159050  1.20717670  0.00000000
  C  1.75767420  1.20600840  0.00000000
  H -0.02158050  0.00000000  0.00000000
  H  1.21442170 -2.14163870  0.00000000
  H  3.69299530 -2.14356570  0.00000000
  H  4.93014990  0.00000000  0.00000000
  H  3.69299530  2.14356570  0.00000000
  H  1.21442170  2.14163870  0.00000000
  C -2.45415240  0.00000000 -1.39406330
  C -2.45462770  1.20723780 -0.69704680
  C -2.45462770  1.20723780  0.69704680
  C -2.45415240  0.00000000  1.39406330
  C -2.45462770 -1.20723780  0.69704680
  C -2.45462770 -1.20723780 -0.69704680
  H -2.45032210  0.00000000 -2.47539950
  H -2.45367640  2.14356550 -1.23823210
  H -2.45367640  2.14356550  1.23823210
  H -2.45032210  0.00000000  2.47539950
  H -2.45367640 -2.14356550  1.23823210
  H -2.45367640 -2.14356550 -1.23823210