25
118 2-pyridoxine_2-aminopyridine c1 -16.71
  O -1.39762107 -1.88582750 -0.36730566
  N -1.46425436  0.36419210  0.01923065
  C -4.18573916  0.36967650  0.03609760
  C -3.48325894  1.57832062  0.25007657
  C -2.11794935  1.53071416  0.23383914
  C -2.07738288 -0.86373983 -0.18994066
  C -3.51560277 -0.80518547 -0.17575721
  H -5.26780385  0.37075252  0.04114391
  H -3.99203236  2.51276557  0.42144300
  H -1.49291859  2.39841889  0.38850243
  H -4.04012234 -1.73483560 -0.33792544
  H -0.42652597  0.36122188  0.00735395
  N  1.43276222  0.36397927 -0.01595137
  C  2.11542057 -0.78033611  0.16810902
  C  3.52375916 -0.80160087  0.15450128
  C  4.21859031  0.37358696 -0.05259455
  C  3.50997147  1.56151014 -0.24497763
  C  2.12801447  1.49534130 -0.21753820
  H  4.04592111 -1.73612694  0.30768664
  H  5.29994321  0.36660943 -0.06633696
  H  4.01109301  2.50243999 -0.41300669
  H  1.53398852  2.38939267 -0.36705704
  N  1.38831284 -1.90829484  0.41981426
  H  1.86947179 -2.78126839  0.29403764
  H  0.40890712 -1.90798512  0.13008574