   10
 
 C     0.000000     0.000000     0.000000
 C     0.000000     0.000000     1.487000
 O     1.385059     0.000000     1.942384
 C     2.250680     0.190043     0.904208
 O     1.694585     0.623486    -0.151624
 H    -0.523112     0.805522    -0.525845
 H     0.067441    -0.964456    -0.516229
 H    -0.471937     0.916220     1.922864
 H    -0.439409    -0.926357     1.937758
 H     3.266797    -0.190300     1.044500
