   10
 
 C     0.000000     0.000000     0.000000
 C     0.000000     0.000000     1.467000
 C     1.094330     0.000000    -0.738135
 C    -1.028333     0.374283     2.205135
 H    -0.925741     0.000000    -0.556241
 H     0.869912    -0.316622     2.023241
 H     1.000114     0.000000    -1.815021
 H     2.074955     0.000000    -0.280862
 H    -0.939800     0.342059     3.282021
 H    -1.949820     0.709676     1.747862
