    7
 
 C     0.000000     0.000000     0.000000
 C     0.000000     0.000000     1.430000
 O     1.125833     0.000000     2.080000
 H    -0.432873    -0.928299    -0.372802
 H    -0.512132     0.887039    -0.372802
 H    -0.940376     0.082272     1.975000
 H     1.123609     0.101897     0.733853
