14

  C  0.20174600 -0.14929800  0.04230300
  C -0.01406400  0.11077400  1.51342900
  C  0.66556800  0.98246700  2.22765800
  O  2.30049900 -2.76591000  1.15935500
  C  2.01949100 -1.82923600  0.45072000
  C  0.67705800 -1.60210900 -0.19940500
  H  0.93517800  0.54523500 -0.35454800
  H -0.72386300  0.00943000 -0.50088700
  H -0.77294900 -0.49126900  1.98244800
  H  0.48399500  1.11713700  3.27648900
  H  1.43166100  1.59889800  1.79407700
  H  0.77772000 -1.77721600 -1.26774300
  H -0.02890400 -2.31701200  0.20145300
  H  2.75327500 -1.05985900  0.21909100