11

  C  0.14085900 -0.00402200  0.13191000
  C  0.09369300 -0.05176900  1.68007300
 Si  1.83458000  0.01238100  2.48620500
  H  0.61428800  0.90818200 -0.21465100
  H  0.69799900 -0.84528500 -0.26573300
  H -0.86036700 -0.03962900 -0.28299000
  H -0.49547700  0.78069800  2.05367000
  H -0.40793900 -0.95957900  2.00242000
  H  2.66486300 -1.13264100  2.01338000
  H  2.53089900  1.27687500  2.11175800
  H  1.74268200 -0.05334700  3.97259000