21
0.07847704057616056 , 
  C  1.09262570 -0.56079218 -1.65469847
  C  0.87234322  0.85692843 -1.65755451
  C -0.54407951  1.08548463 -1.66288101
  C -1.19914241 -0.19098448 -1.66326153
  C -0.18759672 -1.20846007 -1.65819007
 Fe  0.00115363 -0.00126487  0.00005140
  C  0.85824288  0.86461318  1.66100237
  C  1.07933168 -0.55298147  1.66611697
  C -0.20051860 -1.20136275  1.66195566
  C -1.21265403 -0.18450632  1.65427634
  C -0.55829961  1.09233224  1.65372492
  H -0.37197129 -2.26383662  1.79374588
  H  2.03671244 -1.04357685  1.80165723
  H -1.02953244  2.04584902 -1.79536803
  H -2.26238876 -0.35651738 -1.79615916
  H -0.35859989 -2.27137998 -1.78678157
  H  2.05079239 -1.05250117 -1.78027147
  H  1.63620775  1.61567698 -1.78546468
  H -1.04536161  2.05298349  1.77806042
  H  1.62059989  1.62436769  1.79187855
  H -2.27686472 -0.35007153  1.77916076