8

  C  0.07230600 -0.00000000 -0.04004200
  C  0.28996300  0.00000000  1.48137300
  H  1.04883100 -0.00000000 -0.50556800
  F  1.67515400  0.00000000  1.75064300
  H -0.46615100 -0.87840800 -0.37097300
  H -0.46615100  0.87840800 -0.37097300
  H -0.13582100  0.87682700  1.94366100
  H -0.13582100 -0.87682700  1.94366100