    7
 
 O     0.000000     0.000000     0.000000
 C     0.000000     0.000000     1.300000
 N     1.221600     0.000000     1.744626
 O     1.464708     0.000000     3.123357
 H    -0.842649     0.000000     2.007066
 H     2.450704     0.000000     3.290126
 H     1.352334     0.000000     0.250334
