12

C         -3.94486        1.56392        0.00000
C         -3.90634        0.16541       -0.00000
C         -2.75298        2.29654        0.00000
C         -1.52257        1.63065       -0.00000
C         -1.48404        0.23214       -0.00000
C         -2.67593       -0.50048       -0.00000
H         -4.89674        2.07908        0.00000
H         -4.82842       -0.40136        0.00000
H         -2.78278        3.37847        0.00000
H         -0.60049        2.19742       -0.00000
H         -0.53217       -0.28302       -0.00000
H         -2.64613       -1.58241       -0.00000
