8
101 ammonia_dimer c2h -3.17
  N  1.57857933 -0.00000000  0.05109222
  H  2.15899948  0.80956500 -0.13026791
  H  2.15899948 -0.80956500 -0.13026791
  H  0.85133595  0.00000000 -0.65577901
  N -1.57857933  0.00000000 -0.05109222
  H -2.15899948  0.80956500  0.13026791
  H -0.85133595 -0.00000000  0.65577901
  H -2.15899948 -0.80956500  0.13026791