26
121 phenol_dimer c1 -7.05
  C -2.00710563 -0.76383367  0.10834987
  O -1.38850469 -1.92983999  0.44312031
  H -0.52381209 -1.96463973  0.00646120
  C -1.46308009  0.15192397 -0.79499391
  C -2.14757806  1.32952131 -1.08836939
  C -3.37432036  1.60315481 -0.48958900
  C -3.91437290  0.68386687  0.40910008
  C -3.23705003 -0.49294847  0.70961066
  H -0.51065008 -0.05664508 -1.26425650
  H -1.71511217  2.03215691 -1.78784329
  H -3.90246578  2.51739856 -0.71979791
  H -4.86707351  0.88230642  0.88112848
  H -3.64316712 -1.21342187  1.40575698
  O  1.35311713 -1.93826041 -0.47231173
  C  2.03697485 -0.78649224 -0.14954737
  H  1.78428544 -2.34873773 -1.22970902
  C  1.59040201 -0.06967363  0.95741653
  C  2.24173590  1.10698895  1.31281235
  C  3.33156712  1.56657252  0.57486557
  C  3.76968425  0.83970201 -0.52864144
  C  3.12248427 -0.33833798 -0.89604676
  H  0.74455022 -0.43678576  1.52185905
  H  1.89214493  1.66498529  2.17018526
  H  3.83302225  2.48116598  0.85666866
  H  4.61376405  1.18502183 -1.10926055
  H  3.45988664 -0.90302602 -1.75694617