7
methylamine
N       0.842288    0.000000    0.000000 
C      -0.586229   -0.016265    0.000000 
H       1.383442   -0.862665    0.000000 
H      -0.961337    1.022179    0.000000 
H       1.364245    0.872675    0.000000 
H      -1.021204   -0.507962    0.897988 
H      -1.021204   -0.507962   -0.897988 
