16
difuropyrazine
O       2.773144    0.000000    0.000000 
O      -2.773144    0.000000    0.000000 
N       0.612287   -1.350199    0.000000 
N      -0.612287    1.350199    0.000000 
C       0.812800    1.138579    0.000000 
C      -0.812800   -1.138579    0.000000 
C       1.406043   -0.145374    0.000000 
C      -1.406043    0.145374    0.000000 
C       2.974964    1.387511    0.000000 
C      -2.974964   -1.387511    0.000000 
C       1.877951    2.157752    0.000000 
C      -1.877951   -2.157752    0.000000 
H       3.983105    1.805760    0.000000 
H      -3.983105   -1.805760    0.000000 
H       1.770294    3.242042    0.000000 
H      -1.770294   -3.242042    0.000000 
