14
ar14cluster.pdb
Ar        -1.21000        0.41500       -0.48900
Ar        -0.24800        1.15900       -0.73900
Ar         0.10600        0.42100       -0.22900
Ar        -0.18600       -0.77900        0.42500
Ar        -1.03400       -0.45000        0.06000
Ar        -2.00300       -0.56700       -0.06400
Ar         1.04500       -0.93200        0.27200
Ar        -0.39400       -1.36400       -1.03400
Ar        -1.31300        1.15300        1.03600
Ar        -0.36200        1.99200        1.30800
Ar         1.24800        1.26300       -0.05300
Ar         1.17900        0.30800       -0.71200
Ar         0.82600       -0.97100       -1.59600
Ar        -1.49200       -1.51800       -0.79300
