14

H              3.094649        4.778653        6.396729
H              3.025833        3.092389        5.819578
H              5.496800        2.960717        5.677066
H              6.913311        4.916009        6.273153
H              5.376366        5.994077        6.394298
H              2.108187        4.631052        4.092800
H              3.597225        3.793036        3.484544
H              3.268399        6.799344        4.168075
C              5.030732        3.940879        5.890968
C              3.866925        5.877147        3.905347
C              3.210582        4.538846        4.207720
C              3.535753        4.066805        5.667477
O              4.993624        5.988939        3.411895
C              5.816331        4.995813        6.222026 
