90
h2o_30_sphere.pdb
H          2.18600       -1.75100        6.02000
H          2.35000       -0.25300        6.51500
O          1.74200       -0.85500        5.99800
H          1.64300       -1.11800        0.20000
H          0.22200       -0.41500        0.21900
O          0.95100       -0.74600        0.81800
H          0.64400       -0.56400        4.10800
H         -0.52400       -1.17000        4.99400
O         -0.33700       -0.48600        4.28900
H         -6.36300       -0.52100       -0.51300
H         -6.65800       -2.07300       -0.37300
O         -5.97000       -1.42300       -0.69400
H          4.72900        4.56600        2.22700
H          3.15700        4.37800        2.31700
O          3.97600        4.00600        1.88200
H         -0.12400        2.38100       -1.19600
H          1.39900        2.03200       -0.92200
O          0.50600        2.09500       -0.47500
H         -1.40900       -1.49500       -4.03500
H         -2.04100       -2.41900       -2.91200
O         -2.26100       -1.67700       -3.54400
H          3.83100        2.84700       -0.96600
H          4.66800        2.08400       -2.07600
O          3.77900        2.09100       -1.61800
H          3.78400        1.35800        4.03500
H          5.30700        1.00600        4.30500
O          4.39700        0.95800        4.71600
H          0.45800       -1.79200       -1.56200
H         -0.49900       -3.04200       -1.36700
O         -0.00200       -2.33700       -0.86100
H         -4.26800        2.12400        0.58300
H         -5.19100        1.77300       -0.65700
O         -4.56100        2.46600       -0.30900
H         -0.05100       -5.68500       -3.19700
H         -1.12000       -4.52900       -3.38400
O         -0.42700       -4.87400       -2.75000
H         -3.47500       -2.21900       -5.73400
H         -2.01100       -2.48000       -6.28600
O         -2.68500       -2.82300       -5.63200
H         -3.21900        1.63200       -4.00000
H         -4.17700        0.42100       -4.36400
O         -3.73200        0.87600       -3.59300
H          1.21400       -2.50100        2.23700
H          0.12800       -2.61700        3.38800
O          1.11400       -2.64200        3.22200
H         -1.13300        3.32000       -5.04000
H         -2.65100        3.40200       -5.48900
O         -1.71800        3.55100       -5.81700
H          0.63400        1.58000        2.07600
H          2.16300        1.63600        2.49200
O          1.55100        1.73100        1.70700
H         -4.12700        4.66700       -2.72500
H         -5.16500        4.50000       -1.53800
O         -4.31900        4.96900       -1.79200
H         -0.60200        2.54900        5.17000
H          0.62200        3.50900        4.86400
O         -0.16400        3.39500        5.47100
H         -2.67500        0.78800       -5.98800
H         -1.14800        0.99700       -6.36100
O         -2.04600        1.43200       -6.42400
H         -5.51900       -2.54900        3.48500
H         -5.77300       -1.36000        2.46700
O         -5.86100       -1.61100        3.43100
H          5.81100       -2.11800       -1.76600
H          4.51400       -2.62200       -1.00500
O          5.44500       -2.89200       -1.24800
H         -6.22300       -0.18200       -3.29400
H         -5.77000        1.29800       -2.94800
O         -6.35000        0.55000       -2.62500
H         -4.50300       -1.43800       -3.14200
H         -4.38100       -3.01600       -3.04800
O         -4.22200       -2.17600       -2.53000
H         -4.91900        0.83000        3.47600
H         -5.84900        1.88000        2.73600
O         -4.91400        1.74000        3.06300
H          5.55600        1.10800        2.05100
H          4.90900        2.10000        0.99700
O          5.58700        2.05500        1.73000
H         -1.26000       -5.00300        2.29700
H          0.27000       -5.19500        1.92400
O         -0.38300       -5.30500        2.67300
H         -1.02100        0.46400       -2.79800
H         -2.13900        0.11800       -1.72800
O         -1.16300        0.01400       -1.91700
H          1.37800        4.47900       -3.96800
H          1.94900        3.16400       -3.29100
O          1.51500        4.03900       -3.08000
H         -3.39800       -3.09200       -0.59700
H         -4.02300       -4.16400        0.39100
O         -3.76200       -3.20100        0.32800
