 8
 hf/3-21g, hf abstraction ts
 C                  1.15055531    0.00621559    0.00000000
 H                  1.71535033   -0.06928909    0.91095380
 H                  0.10133423   -0.94084519    0.00000000
 H                  1.71535033   -0.06928909   -0.91095380
 C                  0.00000000    0.81456353    0.00000000
 H                 -0.38647659    1.22844046    0.90714001
 H                 -0.38647659    1.22844046   -0.90714001
 F                 -1.07360151   -0.70023692    0.00000000
