42
0 1
 C                 -4.01311027    0.44332255    0.00026300
 C                 -2.64030927    0.44332255    0.00026300
 C                 -1.91837127    1.66844355    0.00026300
 C                 -2.63624127    2.89230955    0.00063300
 C                 -4.05765727    2.86293655    0.00078700
 C                 -4.72916227    1.66496155    0.00049700
 H                 -4.57384127   -0.50302345    0.00018300
 H                 -2.07552027   -0.50099945    0.00003500
 C                 -0.49664427    1.69798655    0.00000000
 C                 -1.91349127    4.11703555    0.00074800
 H                 -4.60489827    3.81739255    0.00086900
 H                 -5.82879927    1.63859455    0.00059900
 O                 -2.55902401    5.19724755    0.00104535
 O                  0.12934545    0.60633302    0.00002287
 O                  0.20331099    2.94496796    0.00001666
 O                 -0.48349130    4.11710638    0.00046364
 C                 -0.00667820    5.46526899   -0.00215253
 H                 -0.36397290    5.96825624   -0.87636322
 H                  1.06332147    5.46515147   -0.00298876
 C                  1.61241509    2.70141324    0.00260920
 H                  1.87637091    2.14373465    0.87680707
 H                  2.13568781    3.63473255    0.00345344
 C                  1.99689067    1.89848191   -1.25400522
 C                  2.95802180    0.80131329   -0.87459902
 C                  2.58661842    2.82804200   -2.28336171
 H                  1.05211374    1.44554001   -1.65640825
 H                  2.49869808    0.12711955   -0.11216349
 H                  3.22972003    0.18955942   -1.76868830
 H                  3.89626501    1.23043588   -0.44683321
 H                  1.85674095    3.63070403   -2.54752656
 H                  3.51514381    3.31008524   -1.89224066
 H                  2.84871653    2.26906261   -3.21414129
 C                 -0.51894960    6.19337937    1.25444338
 C                 -1.07437632    7.53896681    0.86406314
 C                  0.60172253    6.31909053    2.25430650
 H                 -1.33890491    5.56195535    1.68879922
 H                 -1.90181198    7.41930049    0.12389179
 H                 -1.47580739    8.07361373    1.75874975
 H                 -0.27924759    8.17484204    0.40486485
 H                  0.99568144    5.31058912    2.52723835
 H                  1.44060404    6.92309277    1.83127001
 H                  0.24396794    6.82203624    3.18519923
