26
0 1
 Al                -1.16406416    2.59256970   -0.00027000
 Al                 0.37922584    1.04938270    0.00000000
 Cl                -1.16402116    1.04938270    0.00000000
 Cl                 0.37916484    2.59257270    0.00000000
 Cl                -2.03072633    3.45920605    1.87468017
 C                  1.16047554    0.26816388    1.69107837
 H                  0.38207703   -0.18900261    2.26552990
 H                  1.61754039    1.04659314    2.26556911
 C                  2.21856173   -0.78979667    1.32669797
 H                  2.99696559   -0.33262697    0.75225624
 H                  2.63238346   -1.20361916    2.22246721
 H                  1.76149959   -1.56822008    0.75219715
 C                  1.16047554    0.26816388   -1.69107837
 H                  2.21476594    0.44942591   -1.71379007
 H                  0.70122241    0.72738810   -2.54143105
 C                  0.89967266   -1.24923984   -1.72375588
 H                  0.30356489   -1.49034420   -2.57898930
 H                  1.83247875   -1.77031451   -1.78079959
 H                  0.38176721   -1.54136035   -0.83418320
 C                 -1.94501599    3.37349824   -1.69162001
 H                 -1.88209474    4.44097575   -1.65376908
 H                 -1.39658588    3.01363703   -2.53697456
 C                 -3.42028369    2.95042091   -1.81886308
 H                 -3.88784663    3.51661559   -2.59713583
 H                 -3.47333305    1.90812934   -2.05490131
 H                 -3.92469463    3.13256161   -0.89296115
