44
0 1
 C                 -5.72394794   -2.03759475   -0.34726413
 C                 -4.36651506   -2.05134557   -0.37167636
 C                 -3.64675824   -0.88350848   -0.07864949
 C                 -4.33730875    0.31963072    0.11294346
 C                 -5.73865254    0.29802775    0.19016632
 C                 -6.41652110   -0.85953754   -0.03243044
 C                 -2.10462275   -0.94678670    0.05880598
 C                 -3.59562796    1.66693322    0.21954320
 C                 -2.14797332    1.45160162    0.70721816
 C                 -1.44982424    0.42926236   -0.19619880
 C                 -1.37433487    2.79355509    0.73070811
 H                 -1.11964579    3.11914410   -0.25738768
 C                 -2.16062375    3.88188800    1.41360645
 C                 -3.66039161    3.99370646    1.15393049
 C                 -4.32096506    2.61099017    1.23926478
 H                 -1.88251454   -1.23656315    1.06107071
 H                 -6.27575512   -2.93216429   -0.56555124
 H                 -6.27099986    1.19502075    0.41769714
 H                 -7.48728049   -0.87061370    0.02803549
 H                 -0.41100571    0.35912456    0.04161506
 H                 -4.09827486    4.69548809    1.84248095
 H                 -5.35604704    2.71085169    0.98035844
 H                 -1.70702552   -1.66674090   -0.62305559
 H                 -1.55862533    0.73770622   -1.21817556
 H                 -2.18151098    1.07293742    1.70737979
 H                 -3.58475600    2.11050441   -0.75356888
 H                 -4.23845100    2.20553012    2.22368827
 H                 -3.80833352    4.33745709    0.14997228
 C                 -0.14064108    2.66547854    1.65286198
 H                  0.68403933    2.16517625    1.19118172
 H                 -0.39467287    2.13817029    2.54833146
 C                  0.10915644    4.13016156    2.00450117
 H                  0.87839328    4.28043376    2.73697196
 H                  0.38184388    4.66765781    1.11924229
 C                 -1.30587835    4.56049823    2.48711983
 H                 -1.40993554    5.62080733    2.53657912
 C                 -2.39931634    2.84748755    2.52873249
 H                 -2.94804980    2.01523991    2.12865270
 H                 -1.46064312    2.50875754    2.91605893
 H                 -2.96343837    3.30203282    3.32134558
 O                 -1.63038787    4.02241521    3.77094483
 H                 -2.53853215    4.24451827    3.98371585
 O                 -3.67449182   -3.26279162   -0.68536775
 H                 -4.30758901   -3.93419712   -0.94994782
