33
-2 1
 Zn                -0.50323842    0.84421540   -0.31876501
 N                  0.76811725    2.18698919   -0.99533226
 N                 -1.33175968    2.23482773    0.88426776
 O                 -1.76287022   -0.48617593    0.35156325
 O                  0.29140331   -0.48953261   -1.47260388
 O                  0.85093238    0.46128734    0.99572104
 C                  2.04644737    1.19178486    1.33417246
 C                  2.28159305    2.46856324    0.52906788
 H                  2.03167215    3.30115801    1.15294726
 H                  3.29526518    2.56828352    0.20131084
 C                  1.24035829    0.10639573   -2.35079013
 C                  0.76964354    1.45379680   -2.78582501
 C                 -2.60176017    0.41696052    1.53872742
 C                 -1.91481402    1.65503353    2.06582597
 C                 -2.74794109    2.03480831   -0.87255431
 C                 -2.56555128    2.83844099    0.42110907
 C                 -0.60117604    3.51560827    0.78148424
 H                 -1.27849655    4.34221215    0.72797756
 H                  0.02946971    3.63456739    1.63765868
 C                  0.19964164    3.61872574   -0.27632884
 H                 -0.37027605    3.48485051   -1.17196898
 H                  0.82853936    4.47508196   -0.40298462
 O                 -3.71566593    0.01930704    1.96844390
 O                  2.30164023   -0.44548585   -2.74153035
 O                  2.83459672    0.81082449    2.23819700
 O                 -3.61816296    2.08241440   -1.78030875
 H                  1.52692450    2.05350235   -3.24601932
 H                 -0.02102803    1.28783382   -3.48739094
 H                 -3.33876653    2.51908453    1.08822947
 H                 -2.53136291    3.90782252    0.40868806
 H                 -1.17102325    1.36687418    2.77901562
 H                 -2.58471468    2.34674839    2.53237035
 O                 -1.91276137    1.24279577   -1.68698109
