          33
  Built with Packmol                                             
  O            0.000000        0.390588        0.000000
  H           -0.756950       -0.195294        0.000000
  H            0.756950       -0.195294        0.000000
  O            0.134795        0.382612       -4.913826
  H           -0.822130        0.397776       -4.896618
  H            0.359250       -0.546624       -4.962534
  O            3.396040        2.768466       -2.531196
  H            3.157421        1.843246       -2.474085
  H            2.559681        3.233624       -2.512168
  O            1.995444       -3.360021       -2.973730
  H            1.834355       -2.695795       -3.643869
  H            1.131657       -3.728577       -2.788609
  O           -2.334850        1.890586       -3.083860
  H           -2.343644        2.732305       -2.628158
  H           -3.209757        1.530234       -2.939236
  O            3.954167       -2.036508       -2.165858
  H            4.037165       -1.321363       -1.535056
  H            3.623670       -1.618151       -2.960830
  O            0.679293        2.265484       -3.802410
  H            0.827979        3.209843       -3.850483
  H           -0.270427        2.175777       -3.723563
  O           -1.649411       -1.722058       -4.423812
  H           -2.155185       -1.342007       -3.705490
  H           -1.074505       -2.360128       -4.001223
  O            1.639168        0.435423       -3.202263
  H            1.931179       -0.435110       -3.472697
  H            1.505290        0.360872       -2.257409
  O            0.535453        2.774462       -1.651571
  H            1.135860        2.548068       -0.941297
  H            0.584024        3.728520       -1.711949
  O           -0.687348       -1.429558       -2.070569
  H            0.196262       -1.381854       -2.435520
  H           -0.769091       -2.330155       -1.756761
