10

  C  0.17347700  0.07454300 -0.03208100
  C  0.02148700  0.06876500  1.50287300
  O  1.38687900 -0.14969600  1.95343500
  C  2.24662700  0.37327300  0.98301900
  O  1.55226800  0.50280200 -0.22674200
  H -0.47975000  0.77507600 -0.52214800
  H  0.05050900 -0.91397300 -0.44757300
  H -0.33605700  1.01901200  1.86969400
  H -0.58710900 -0.73710700  1.87370100
  H  3.20933500 -0.09459700  0.93480200