   11
 
 C     0.000000     0.000000     0.000000
 C     0.000000     0.000000     1.520000
Si     2.006545     0.000000     2.644179
 H     0.422061     0.910502    -0.450390
 H     0.459439    -0.873991    -0.461688
 H    -1.051651    -0.019825    -0.354596
 H    -0.547586     0.879391     1.858999
 H    -0.559830    -0.877067     1.876854
 H     2.812789    -1.154016     2.187433
 H     1.220827     0.893189     1.730472
 H     1.749593    -0.143498     4.094622
