45
0 1
 C                 -2.19839142    2.09097359   -0.02737234
 C                 -1.43103425    0.75577211   -0.02737234
 C                  0.10896575    0.75577211   -0.02737234
 H                 -1.74769475    0.20855218    0.83586371
 H                 -1.74769475    0.20855218   -0.89060839
 C                 -3.73839142    2.09097359   -0.02737234
 C                 -4.43591286    0.88269578   -0.02737234
 C                 -4.43589703    3.29887841   -0.02726115
 C                 -5.83062478    0.88241799   -0.02794305
 H                 -3.88571982   -0.06942220   -0.02823725
 C                 -5.83103491    3.29877377   -0.02683607
 H                 -3.88629975    4.25128158   -0.02708124
 C                 -6.52845622    2.09082497   -0.02731510
 H                 -6.38048765   -0.06991963   -0.02857708
 H                 -6.38071991    4.25130743   -0.02633305
 C                  0.87632291   -0.57942936   -0.02737234
 C                  0.17629289   -1.78625553   -0.02737234
 C                  2.27114903   -0.58229695   -0.02748354
 C                  0.87101450   -2.99562863   -0.02680164
 H                 -0.92335900   -1.78365552   -0.02650744
 C                  2.96623302   -1.79195309   -0.02790862
 H                  2.82304040    0.36877870   -0.02766345
 C                  2.26643836   -2.99852850   -0.02742959
 H                  0.31931231   -3.94690188   -0.02616761
 H                  4.06599216   -1.79390548   -0.02841164
 O                 -1.57135099    3.18202393   -0.02737234
 O                  0.74247748    1.84307770   -0.02737234
 O                 -7.95845600    2.09021508   -0.02782345
 C                 -8.43437403    1.05436295   -0.89119613
 H                 -8.31284093    0.10591567   -0.41101131
 H                 -9.47033907    1.21590181   -1.10469467
 H                 -7.87604841    1.06619353   -1.80390229
 C                  3.03322595   -4.33405704   -0.02688214
 C                  2.44786925   -5.26161871    1.05412983
 H                  1.50989888   -5.65247723    0.71895644
 H                  3.12594024   -6.06896103    1.23666230
 H                  2.30105991   -4.70789223    1.95786320
 C                  2.89770035   -5.00435896   -1.40671117
 H                  3.17483088   -4.30793224   -2.17031348
 H                  3.54028478   -5.85867376   -1.45287918
 H                  1.88382151   -5.31219996   -1.55565282
 C                  4.52089557   -4.07172140    0.27248237
 H                  4.94576313   -3.48699427   -0.51649274
 H                  4.61044950   -3.54136885    1.19747225
 H                  5.04011424   -5.00452905    0.34446755
