11

  C -4.59894988  1.52989159 -0.00374272
  C -3.27222713  2.44656060  0.00986523
  N -2.24581777  1.33946974 -0.01009730
  H -3.20932935  3.08031857  0.87976431
  H -3.19184832  3.05424553 -0.87633287
  C -3.64409207  0.22997921  0.00032491
  H -5.17864587  1.60449984 -0.90586991
  H -5.24236373  1.61297248  0.84989963
  H -3.56552035 -0.33356899 -0.91080839
  H -3.62662827 -0.39969622  0.87327237
  H -1.78053911  1.28652892  0.88395337
